
Note: No compatibility mode selected!

warning, can't find model 'mn1' from line
    dump all mn1

Circuit: * test nmos - absolute path

Error on line 12 or its substitute:
  .altmode
 unimplemented control card - error 
    Simulation interrupted due to error!

