
No compatibility mode selected!


Circuit: * nmos common-source amplifier - ac analysis for ngspice (no lambda)

Doing analysis at TEMP = 27.000000 and TNOM = 27.000000


No. of Data Rows : 71
ngspice-36 done
