
No compatibility mode selected!


Circuit: * rc low-pass filter - ac analysis test for ngspice

Doing analysis at TEMP = 27.000000 and TNOM = 27.000000


No. of Data Rows : 31
ngspice-36 done
